/*--------------------------------*- C++ -*----------------------------------*\
| =========                 |                                                 |
| \\      /  F ield         | OpenFOAM: The Open Source CFD Toolbox           |
|  \\    /   O peration     | Version:  2.1.0                                 |
|   \\  /    A nd           | Web:      www.OpenFOAM.org                      |
|    \\/     M anipulation  |                                                 |
\*---------------------------------------------------------------------------*/
FoamFile
{
    version     2.0;
    format      ascii;
    class       dictionary;
    object      blockMeshDict;
}
// * * * * * * * * * * * * * * * * * * * * * * * * * * * * * * * * * * * * * //

convertToMeters 0.0036;

vertices
(
    (0.5 0.0 0.0 )
    (0.5 0.0 0.0 )
    (4.0 0.0 0.0 )
    (4.0 0.0 0.0 )
    (8.0 0.0 0.0 )
    (8.0 0.0 0.0 )
    (-0.5 0.0 0.0 )
    (-0.5 0.0 0.0 )
    (-4.0 0.0 0.0 )
    (-4.0 0.0 0.0 )
    (-8.0 0.0 0.0 )
    (-8.0 0.0 0.0 )
    (-0.17101007166283436 0.46939912081487845 -0.020494408215204162 )
    (-0.17101007166283436 0.46939912081487845 0.020494408215204162 )
    (-1.3680805733026749 3.7551929665190276 -0.1639552657216333 )
    (-1.3680805733026749 3.7551929665190276 0.1639552657216333 )
    (-2.7361611466053497 7.510385933038055 -0.3279105314432666 )
    (-2.7361611466053497 7.510385933038055 0.3279105314432666 )
    (16.0 0.0 0.0 )
    (16.0 0.0 0.0 )
    (16.0 14.32330033235013 -0.6253687980722109 )
    (16.0 14.32330033235013 0.6253687980722109 )
);

blocks
(
    hex (0 2 14 12 1 3 15 13) (10 12 1) simpleGrading (1 1 1)
    hex (12 14 8 6 13 15 9 7) (10 8 1) simpleGrading (1 1 1)
    hex (2 4 16 14 3 5 17 15) (10 12 1) simpleGrading (1 1 1)
    hex (14 16 10 8 15 17 11 9) (10 8 1) simpleGrading (1 1 1)
    hex (4 18 20 16 5 19 21 17) (20 12 1) simpleGrading (1 1 1)
);

edges
(
    arc 0 12 (0.3535533905932738 0.353216886106446 -0.015421782298615948 )
    arc 1 13 (0.3535533905932738 0.353216886106446 0.015421782298615948 )
    arc 12 6 (-0.3535533905932738 0.353216886106446 -0.015421782298615948 )
    arc 13 7 (-0.3535533905932738 0.353216886106446 0.015421782298615948 )
    arc 2 14 (2.8284271247461903 2.825735088851568 -0.12337425838892759 )
    arc 3 15 (2.8284271247461903 2.825735088851568 0.12337425838892759 )
    arc 14 8 (-2.8284271247461903 2.825735088851568 -0.12337425838892759 )
    arc 15 9 (-2.8284271247461903 2.825735088851568 0.12337425838892759 )
    arc 4 16 (5.656854249492381 5.651470177703136 -0.24674851677785517 )
    arc 5 17 (5.656854249492381 5.651470177703136 0.24674851677785517 )
    arc 16 10 (-5.656854249492381 5.651470177703136 -0.24674851677785517 )
    arc 17 11 (-5.656854249492381 5.651470177703136 0.24674851677785517 )
);

boundary
(
    flow
    {
        type patch;
        faces
        (
            (10 16 17 11)
            (16 20 21 17)
            (20 21 19 18)
        );
    }
    sphere
    {
        type wall;
        faces
        (
            (6 12 13 7)
            (12 0 1 13)
        );
    }
    wedgeFront
    {
        type symmetry;
        faces
        (
            (0 2 14 12)
            (12 14 8 6)
            (2 4 16 14)
            (14 16 10 8)
            (4 18 20 16)
        );
    }
    wedgeBack
    {
        type symmetry;
        faces
        (
            (1 3 15 13)
            (13 15 9 7)
            (3 5 17 15)
            (15 17 11 9)
            (5 19 21 17)
        );
    }
);

mergePatchPairs
(
);

