/*--------------------------------*- C++ -*----------------------------------*\
| =========                 |                                                 |
| \\      /  F ield         | OpenFOAM: The Open Source CFD Toolbox           |
|  \\    /   O peration     | Version:  2.1.0                                 |
|   \\  /    A nd           | Web:      www.OpenFOAM.org                      |
|    \\/     M anipulation  |                                                 |
\*---------------------------------------------------------------------------*/
FoamFile
{
    version     2.0;
    format      ascii;
    class       dictionary;
    object      blockMeshDict;
}
// * * * * * * * * * * * * * * * * * * * * * * * * * * * * * * * * * * * * * //

convertToMeters 0.01;

vertices
(
    (0.5 0.0 0.0 )
    (0.5 0.0 0.0 )
    (2.5 0.0 0.0 )
    (2.5 0.0 0.0 )
    (5.0 0.0 0.0 )
    (5.0 0.0 0.0 )
    (-0.5 0.0 0.0 )
    (-0.5 0.0 0.0 )
    (-2.5 0.0 0.0 )
    (-2.5 0.0 0.0 )
    (-5.0 0.0 0.0 )
    (-5.0 0.0 0.0 )
    (-0.17101007166283436 0.46939912081487845 -0.020494408215204162 )
    (-0.17101007166283436 0.46939912081487845 0.020494408215204162 )
    (-0.8550503583141718 2.3469956040743924 -0.10247204107602083 )
    (-0.8550503583141718 2.3469956040743924 0.10247204107602083 )
    (-1.7101007166283435 4.693991208148785 -0.20494408215204166 )
    (-1.7101007166283435 4.693991208148785 0.20494408215204166 )
    (10.0 0.0 0.0 )
    (10.0 0.0 0.0 )
    (10.0 8.95206270771883 -0.39085549879513176 )
    (10.0 8.95206270771883 0.39085549879513176 )
);

blocks
(
    hex (0 2 14 12 1 3 15 13) (10 10 1) simpleGrading (1 1 1)
    hex (12 14 8 6 13 15 9 7) (10 10 1) simpleGrading (1 1 1)
    hex (2 4 16 14 3 5 17 15) (10 10 1) simpleGrading (1 1 1)
    hex (14 16 10 8 15 17 11 9) (10 10 1) simpleGrading (1 1 1)
    hex (4 18 20 16 5 19 21 17) (20 10 1) simpleGrading (1 1 1)
);

edges
(
    arc 0 12 (0.3535533905932738 0.353216886106446 -0.015421782298615948 )
    arc 1 13 (0.3535533905932738 0.353216886106446 0.015421782298615948 )
    arc 12 6 (-0.3535533905932738 0.353216886106446 -0.015421782298615948 )
    arc 13 7 (-0.3535533905932738 0.353216886106446 0.015421782298615948 )
    arc 2 14 (1.7677669529663689 1.7660844305322303 -0.07710891149307975 )
    arc 3 15 (1.7677669529663689 1.7660844305322303 0.07710891149307975 )
    arc 14 8 (-1.7677669529663689 1.7660844305322303 -0.07710891149307975 )
    arc 15 9 (-1.7677669529663689 1.7660844305322303 0.07710891149307975 )
    arc 4 16 (3.5355339059327378 3.5321688610644606 -0.1542178229861595 )
    arc 5 17 (3.5355339059327378 3.5321688610644606 0.1542178229861595 )
    arc 16 10 (-3.5355339059327378 3.5321688610644606 -0.1542178229861595 )
    arc 17 11 (-3.5355339059327378 3.5321688610644606 0.1542178229861595 )
);

boundary
(
);

mergePatchPairs
(
);

